##CIF_1.1

data_sm_global
#Used dictionaries
loop_
_audit_conform_dict_name
_audit_conform_dict_version
_audit_conform_dict_location
cif_core.dic 	2.4.2 	.
cif_pd.dic 		1.0.1 	.
cif_sm.dic 		0.1 	'redaktion.landolt-boernstein(at)springer.com'

#About this content and reference
_sm_credits_copyright
;PAULING FILE Multinaries Edition - 2012. SpringerMaterials Release 2014.
http://www.paulingfile.com
Unique LPF ID Number SD0541996
Project Coordinator: Shuichi Iwata
Section-Editors: Karin Cenzual (Crystal Structures), Hiroaki Okamoto (Phase 
Diagrams), Fritz Hulliger (Physical Properties)
(c) Springer & Material Phases Data System (MPDS), Switzerland & National 
Institute for Materials Science (NIMS), Japan 2014.
(Data generated pre-2002: (c) Springer & MPDS & NIMS; 
post-2001: (c) Springer & MPDS)
All Rights Reserved. Version 2014.06.
;

_audit_creation_method
;This data have been compiled from the crystallographic datasheet for 
"ThO2 Crystal Structure" 
taken from SpringerMaterials (sm_isp_sd_0541996).
;

_publ_section_references
;R&#x00fc;dorff W., Valet G.: <i>&#x00dc;ber das Ceruranblau und Mischkristalle im System CeO<sub>2</sub>-UO<sub>2</sub>-U<sub>3</sub>O<sub>8</sub></i>. Zeitschrift f&#x00fc;r Anorganische und Allgemeine Chemie <b>271</b> (1953) 257-272 (in German).
;

#Phase classification
_sm_phase_labels				'ThO2'
_chemical_name_mineral			'thorianite'
_sm_chemical_compound_class		'oxide'
_sm_phase_prototype				'CaF2 '
_sm_pearson_symbol				'cF12'
_symmetry_Int_Tables_number		225
_sm_sample_details
;powder (determination of cell and structural parameters)
;
_sm_measurement_details
;Straumanis film (determination of cell and structural parameters), 
X-rays, Cu K&#x03b1; (determination of cell and structural parameters)
;
_sm_interpretation_details
;cell parameters determined and type with fixed coordinates assigned
;

data_sm_isp_SD0541996-standardized_unitcell
#Cell Parameters
_cell_length_a					5.597
_cell_length_b					5.597
_cell_length_c					5.597
_cell_angle_alpha				90
_cell_angle_beta				90
_cell_angle_gamma				90
_sm_length_ratio_ab				1.000
_sm_length_ratio_bc				1.000
_sm_length_ratio_ca				1.000
_cell_volume 					175.33
_symmetry_space_group_name_H-M	'Fm-3m'
_symmetry_Int_Tables_number		225
_cell_formula_units_Z			4
_sm_cell_transformation
;No transformation from published to standardized cell parameters necessary.
;

#Atom Coordinates
loop_
_atom_site_label
_atom_site_type_symbol
_atom_site_Wyckoff_symbol
_sm_site_symmetry
_atom_site_fract_x
_atom_site_fract_y
_atom_site_fract_z
_atom_site_occupancy
_sm_coordination_number
_sm_atomic_environment_type
O 'O' .8c .-43m 0.25 0.25 0.25 1 10 'fourcapped trigonal prism, Th<sub>4</sub>O<sub>6</sub>'
Th 'Th' .4a .m-3m 0 0 0 1 8 'square prism (cube), O<sub>8</sub>'

_sm_atom_site_transformation
;No transformation from published to standardized cell parameters necessary.
;

data_sm_isp_SD0541996-published_cell
#Cell Parameters
_cell_length_a					5.597(2)
_cell_length_b					5.597(2)
_cell_length_c					5.597(2)
_cell_angle_alpha				90
_cell_angle_beta				90
_cell_angle_gamma				90
_sm_length_ratio_ab				1.000
_sm_length_ratio_bc				1.000
_sm_length_ratio_ca				1.000
_cell_volume 					175.33
_symmetry_space_group_name_H-M	'Fm-3m'
_symmetry_Int_Tables_number		225
_cell_formula_units_Z			4

#Atom Coordinates
loop_
_atom_site_label
_atom_site_type_symbol
_atom_site_Wyckoff_symbol
_sm_site_symmetry
_atom_site_fract_x
_atom_site_fract_y
_atom_site_fract_z
_atom_site_occupancy
_sm_coordination_number
_sm_atomic_environment_type
Th 'Th' .4a .m-3m 0 0 0 1 ? '?'
O 'O' .8c .-43m 0.25 0.25 0.25 1 ? '?'

data_sm_isp_SD0541996-niggli_reduced_cell
#Cell Parameters
_cell_length_a					3.9577
_cell_length_b					3.9577
_cell_length_c					3.9577
_cell_angle_alpha				60
_cell_angle_beta				60
_cell_angle_gamma				60
_sm_length_ratio_ab				1.000
_sm_length_ratio_bc				1.000
_sm_length_ratio_ca				1.000
_cell_volume 					43.83
_symmetry_space_group_name_H-M	''
_symmetry_Int_Tables_number		?
_cell_formula_units_Z			4

#Atom Coordinates
loop_
_atom_site_label
_atom_site_type_symbol
_atom_site_Wyckoff_symbol
_sm_site_symmetry
_atom_site_fract_x
_atom_site_fract_y
_atom_site_fract_z
_atom_site_occupancy
_sm_coordination_number
_sm_atomic_environment_type
? ? ? ? ? ? ? ? ? ?

